# generated using pymatgen
data_Cu2Se
_symmetry_space_group_name_H-M   'P 1'
_cell_length_a   5.80201800
_cell_length_b   5.80201800
_cell_length_c   5.80201800
_cell_angle_alpha   90.00000000
_cell_angle_beta   90.00000000
_cell_angle_gamma   90.00000000
_symmetry_Int_Tables_number   1
_chemical_formula_structural   Cu2Se
_chemical_formula_sum   'Cu8 Se4'
_cell_volume   195.31572743
_cell_formula_units_Z   4
loop_
 _symmetry_equiv_pos_site_id
 _symmetry_equiv_pos_as_xyz
  1  'x, y, z'
loop_
 _atom_type_symbol
 _atom_type_oxidation_number
  Cu+  1.0
  Se2-  -2.0
loop_
 _atom_site_type_symbol
 _atom_site_label
 _atom_site_symmetry_multiplicity
 _atom_site_fract_x
 _atom_site_fract_y
 _atom_site_fract_z
 _atom_site_occupancy
  Cu+  Cu0  1  0.25000000  0.25000000  0.75000000  1
  Cu+  Cu1  1  0.25000000  0.75000000  0.75000000  1
  Cu+  Cu2  1  0.25000000  0.75000000  0.25000000  1
  Cu+  Cu3  1  0.25000000  0.25000000  0.25000000  1
  Cu+  Cu4  1  0.75000000  0.25000000  0.25000000  1
  Cu+  Cu5  1  0.75000000  0.75000000  0.25000000  1
  Cu+  Cu6  1  0.75000000  0.75000000  0.75000000  1
  Cu+  Cu7  1  0.75000000  0.25000000  0.75000000  1
  Se2-  Se8  1  0.00000000  0.00000000  0.00000000  1
  Se2-  Se9  1  0.00000000  0.50000000  0.50000000  1
  Se2-  Se10  1  0.50000000  0.00000000  0.50000000  1
  Se2-  Se11  1  0.50000000  0.50000000  0.00000000  1
