# generated using pymatgen
data_GaCuTe2
_symmetry_space_group_name_H-M   'P 1'
_cell_length_a   6.02532007
_cell_length_b   6.02532007
_cell_length_c   12.02549689
_cell_angle_alpha   90.00000000
_cell_angle_beta   90.00000000
_cell_angle_gamma   90.00000000
_symmetry_Int_Tables_number   1
_chemical_formula_structural   GaCuTe2
_chemical_formula_sum   'Ga4 Cu4 Te8'
_cell_volume   436.57943426
_cell_formula_units_Z   4
loop_
 _symmetry_equiv_pos_site_id
 _symmetry_equiv_pos_as_xyz
  1  'x, y, z'
loop_
 _atom_type_symbol
 _atom_type_oxidation_number
  Ga3+  3.0
  Cu+  1.0
  Te2-  -2.0
loop_
 _atom_site_type_symbol
 _atom_site_label
 _atom_site_symmetry_multiplicity
 _atom_site_fract_x
 _atom_site_fract_y
 _atom_site_fract_z
 _atom_site_occupancy
  Ga3+  Ga0  1  0.50000000  0.00000000  0.25000000  1
  Ga3+  Ga1  1  0.00000000  0.00000000  0.50000000  1
  Ga3+  Ga2  1  0.00000000  0.50000000  0.75000000  1
  Ga3+  Ga3  1  0.50000000  0.50000000  0.00000000  1
  Cu+  Cu4  1  0.00000000  0.50000000  0.25000000  1
  Cu+  Cu5  1  0.50000000  0.50000000  0.50000000  1
  Cu+  Cu6  1  0.50000000  0.00000000  0.75000000  1
  Cu+  Cu7  1  0.00000000  0.00000000  0.00000000  1
  Te2-  Te8  1  0.75000000  0.73858739  0.37500000  1
  Te2-  Te9  1  0.73858739  0.25000000  0.62500000  1
  Te2-  Te10  1  0.26141261  0.75000000  0.62500000  1
  Te2-  Te11  1  0.25000000  0.26141261  0.37500000  1
  Te2-  Te12  1  0.25000000  0.23858739  0.87500000  1
  Te2-  Te13  1  0.23858739  0.75000000  0.12500000  1
  Te2-  Te14  1  0.76141261  0.25000000  0.12500000  1
  Te2-  Te15  1  0.75000000  0.76141261  0.87500000  1
